         MACRO                                                          00010000
&NAME    $CIPOREC &DSCT=YES                                             00020001
         AIF   ('&DSCT' NE 'YES').SKPDSCT                               00030000
$CIPOREC DSECT                                                          00040001
         AGO   .SKPEQU                                                  00050000
.SKPDSCT ANOP                                                           00060000
$CIPOREC DS    0F                                                       00070001
.SKPEQU  ANOP                                                           00080000
**********************************************************************  00090000
*                                                                    *  00100000
*        $CIPOREC - BLOCK TO DESCRIBE THE LAYOUT OF RECORDS IN THE   *  00110001
*                   CCID VALIDATION DATASET (CIPODSN IN C1DEFLTS)    *  00120001
*                   02/15/89                                         *  00130000
*                                                                    *  00140000
**********************************************************************  00150000
CIPCMT   DS    C                   '*' FOR A COMMENT, ' ' OTHERWISE     00160000
         DS    C                                                        00170000
CIPCCID  DS    CL12                CCID (REQUIRED ON EVERY CARD)        00180000
         DS    C                                                        00190000
CIPUSER  DS    CL8                 USERID NAME MASK (OPTIONAL)          00200000
         DS    C                                                        00201000
CIPENV   DS    CL8                 ENVIRONMENT NAME MASK (OPTIONAL)     00202000
         DS    C                                                        00203000
CIPSTG#  DS    C                   STAGE# MASK (OPTIONAL)               00204000
         DS    C                                                        00205000
CIPSYS   DS    CL8                 SYSTEM NAME MASK (OPTIONAL)          00206000
         DS    C                                                        00207000
CIPSBS   DS    CL8                 SUBSYSTEM NAME MASK (OPTIONAL)       00208000
         DS    C                                                        00209000
CIPTYPE  DS    CL8                 TYPE NAME MASK (OPTIONAL)            00210000
         DS    C                                                        00220000
CIPELEM  DS    CL10                ELEMENT NAME MASK (OPTIONAL)         00230000
         DS    CL6                                                      00240000
CIPSIZE  EQU   *-$CIPOREC          LENGTH OF $CIPREC RECORD             00650002
         MEND                                                           00660000
